Circuit: * C:\Users\Mephiro\Documents\Pokibot\Carte_protection-20210305T204703Z-001\Carte_protection\Circuit_protection.asc

Direct Newton iteration failed to find .op point.  (Use ".option noopiter" to skip.)
Starting Gmin stepping
Gmin = 10
Gmin = 1.07374
Gmin = 0.115292
Gmin = 0.0123794
Gmin = 0.00132923
vernier = 0.5
vernier = 0.25
vernier = 0.125
vernier = 0.0625
Gmin = 0.00100083
vernier = 0.03125
vernier = 0.015625
vernier = 0.0078125
vernier = 0.00390625
vernier = 0.00195313
Gmin = 0.00100083
vernier = 0.000976563
vernier = 0.000488281
Gmin = 0
Gmin stepping failed

Starting source stepping with srcstepmethod=0
Source Step = 3.0303%
Source Step = 11.9318%
vernier = 0.015625
Source Step = 11.8549%
Source Step = 11.8845%
Source Step = 11.9141%
Source Step = 11.9437%
Source Step = 11.9732%
vernier = 0.00146484
Source Step = 12.0073%
Source Step = 12.0517%
Source Step = 12.0961%
Source Step = 12.1404%
Source Step = 12.1848%
vernier = 0.00219727
Source Step = 12.2337%
Source Step = 12.3002%
Source Step = 12.3668%
Source Step = 12.4334%
Source Step = 12.5%
vernier = 0.0032959
Source Step = 12.5699%
Source Step = 12.6698%
Source Step = 12.7697%
Source Step = 12.8695%
Source Step = 12.9694%
Source Step = 13.0693%
vernier = 0.00494385
Source Step = 13.2191%
Source Step = 13.3689%
Source Step = 13.5187%
Source Step = 13.6685%
Source Step = 13.8184%
vernier = 0.00741577
Source Step = 14.0356%
Source Step = 14.2603%
Source Step = 14.485%
Source Step = 14.7098%
Source Step = 14.9345%
vernier = 0.0111237
Source Step = 15.2491%
Source Step = 15.5862%
Source Step = 15.9232%
Source Step = 16.2603%
Source Step = 16.5974%
vernier = 0.0166855
Source Step = 17.0525%
Source Step = 17.5581%
Source Step = 18.0637%
Source Step = 18.5693%
Source Step = 19.0749%
vernier = 0.0250282
Source Step = 19.7322%
Source Step = 20.4907%
Source Step = 21.2491%
Source Step = 22.0075%
Source Step = 22.766%
vernier = 0.0375423
Source Step = 23.714%
Source Step = 24.8517%
Source Step = 25.9893%
Source Step = 27.127%
Source Step = 28.2646%
vernier = 0.0563135
Source Step = 29.6298%
Source Step = 31.3362%
Source Step = 33.0427%
Source Step = 34.7492%
Source Step = 36.4557%
vernier = 0.0844703
Source Step = 38.4181%
Source Step = 40.9778%
Source Step = 43.5375%
Source Step = 46.0972%
Source Step = 48.6569%
vernier = 0.126705
Source Step = 51.4726%
Source Step = 55.3122%
Source Step = 59.1517%
Source Step = 62.9913%
Source Step = 66.8308%
vernier = 0.190058
Source Step = 70.8624%
Source Step = 76.6217%
Source Step = 82.381%
Source Step = 88.1404%
Source Step = 93.8997%
Source Step = 99.659%
vernier = 0.285087
Source stepping succeeded in finding the operating point.


Date: Tue Jul 13 15:00:05 2021
Total elapsed time: 1.545 seconds.

tnom = 27
temp = 50
method = modified trap
totiter = 40773
traniter = 35452
tranpoints = 10903
accept = 10647
rejected = 256
matrix size = 49
fillins = 93
solver = Normal
Matrix Compiler1: 6.36 KB object code size  2.4/1.4/[0.6]
Matrix Compiler2: 5.06 KB object code size  0.7/0.9/[0.5]

