Circuit: * K:\Mephiro-G\Mephiro_drive\PCB_conception\Carte_protection\Draft2.asc

.OP point found by inspection.

Date: Sat Nov 17 15:24:49 2018
Total elapsed time: 0.429 seconds.

tnom = 27
temp = 27
method = modified trap
totiter = 50125
traniter = 50125
tranpoints = 25060
accept = 17677
rejected = 7383
matrix size = 16
fillins = 10
solver = Normal
Matrix Compiler1: 1.36 KB object code size  0.4/0.2/[0.2]
Matrix Compiler2: 1.43 KB object code size  0.2/0.2/[0.2]

