Circuit: * C:\Users\Mephiro\Mephiro Drive\PCB_conception\Carte_protection\Test_timer_hack.asc

Direct Newton iteration for .op point succeeded.

Date: Fri Nov 16 13:37:45 2018
Total elapsed time: 0.052 seconds.

tnom = 27
temp = 27
method = modified trap
totiter = 2043
traniter = 2040
tranpoints = 1021
accept = 1021
rejected = 0
matrix size = 3
fillins = 0
solver = Normal
Matrix Compiler1: 50 bytes object code size  0.0/0.0/[0.0]
Matrix Compiler2:      15 opcodes  0.1/[0.0]/0.0

